/*--------------------------------*- C++ -*----------------------------------*\
| =========                 |                                                 |
| \\      /  F ield         | OpenFOAM: The Open Source CFD Toolbox           |
|  \\    /   O peration     | Version:  1.7.1                                 |
|   \\  /    A nd           | Web:      www.OpenFOAM.com                      |
|    \\/     M anipulation  |                                                 |
\*---------------------------------------------------------------------------*/
FoamFile
{
    version     2.0;
    format      ascii;
    class       dictionary;
    object      blockMeshDict;
}
// * * * * * * * * * * * * * * * * * * * * * * * * * * * * * * * * * * * * * //

convertToMeters 1;
// 
vertices        
(
    (0.0   -0.075  -0.02)//0
    (0.5  -0.075  -0.02)//1
    (0.5  -0.075  0)//2
    (0.5  -0.075  0.15)//3 
    (0.0   -0.075  0.15)//4
    (0.0   -0.075  0)//5

    (0.0   0.075 -0.02)//6
    (0.5  0.075 -0.02)//7
    (0.5  0.075 0.0)//8
    (0.5  0.075 0.15)//9
    (0.0   0.075 0.15)//10
    (0.0   0.075 0.0) //11
);

blocks          
(
    hex (0 1 7 6 5 2 8 11) (100 40 20)  simpleGrading (1 1 0.25) //sediment
    hex (5 2 8 11 4 3 9 10) (100 40 72) simpleGrading (1 1 10)   //water
);

edges           
(
);

boundary         
(
    inandouthalf21 
    {
     type   wall;
     faces 
	    ((0 5 11 6));
    }

    inandouthalf12
    {
     type   patch;
     faces  (
             (2 8 9 3));
    }

    inandouthalf11
    {
     type patch;
     faces ((5 4 10 11));

    }

    inandouthalf22
    {
     type wall;
     faces ((1 7 8 2));
    }

    top
    { 
     type patch;
        faces ((4 3 9 10));

    }
    walls 
    {
     type wall;
     faces (
           (0 6 7 1)
           );

    }
    frontAndBackPlanes
    {
    type wall;
    faces (
           (0 1 2 5)
           (5 2 3 4)
           (6 11 8 7)
           (11 10 9 8)
          );
    }
);

mergePatchPairs
(
);

// ************************************************************************* //
